*Heading
** Job name: Benchmark Model name: Model-1
** Generated by: Abaqus/CAE Student Edition 2021
*Preprint, echo=NO, model=YES, history=NO, contact=NO
** ----------------------------------------------------------------
** 
** PART INSTANCE: truss-1
** 
*Node
      1,           0.,           0.
      2,   3.07692313,           0.
      3,   6.15384626,           0.
      4,   9.23076916,           0.
      5,   12.3076925,           0.
      6,   15.3846149,           0.
      7,   18.4615383,           0.
      8,   21.5384617,           0.
      9,   24.6153851,           0.
     10,   27.6923084,           0.
     11,   30.7692299,           0.
     12,   33.8461533,           0.
     13,   36.9230766,           0.
     14,          40.,           0.
     15,           0.,   3.33333325
     16,   3.07692313,   3.33333325
     17,   6.15384626,   3.33333325
     18,   9.23076916,   3.33333325
     19,   12.3076925,   3.33333325
     20,   15.3846149,   3.33333325
** ... 36 like lines cut
*USER ELEMENT, NODES=2, TYPE=U1, PROPERTIES=4, COORDINATES=3, 
VARIABLES=12
1, 2, 3
*UEL PROPERTY, ELSET=Body
2E11, 0.3, 7800.
*Element, type=U1
 1,  1,  2, 16
 2, 16, 15,  1
 3,  2,  3, 17
 4, 17, 16,  2
 5,  3,  4, 18
 6, 18, 17,  3
 7,  4,  5, 19
 8, 19, 18,  4
 9,  5,  6, 20
10, 20, 19,  5
11,  6,  7, 21
12, 21, 20,  6
13,  7,  8, 22
14, 22, 21,  7
15,  8,  9, 23
16, 23, 22,  8
17,  9, 10, 24
18, 24, 23,  9
19, 10, 11, 25
20, 25, 24, 10
** ... 58 like lines cut
*Nset, nset=Body, generate
  1,  56,   1
*Elset, elset=Body, generate
  1,  78,   1
** Section: SteelSolid
*Solid Section, elset=Body, material=Steel
1.,
*System
*Nset, nset=LeftEdge, generate
  1,  43,  14
*Elset, elset=LeftEdge, generate
  2,  54,  26
*Elset, elset=_RightSurface_S2, generate
 25,  77,  26
*Surface, type=ELEMENT, name=RightSurface
_RightSurface_S2, S2
** 
** MATERIALS
** 
*Material, name=Steel
*Density
7800.,
*Elastic
 2e+11, 0.3
** ----------------------------------------------------------------
** 
** STEP: Load
** 
*Step, name=Load, nlgeom=NO, unsymm=NO
*Static
1., 1., 1e-05, 1.
** 
** BOUNDARY CONDITIONS
** 
** Name: FixOneEnd Type: Symmetry/Antisymmetry/Encastre
*Boundary
LeftEdge, ENCASTRE
** 
** LOADS
** 
** Name: Load1   Type: Pressure
*Dsload
RightSurface, P, 100.
** 
** OUTPUT REQUESTS
** 
*Restart, write, frequency=0
** 
** FIELD OUTPUT: F-Output-1
** 
*Output, field, variable=PRESELECT
** 
** HISTORY OUTPUT: H-Output-1
** 
*Output, history, variable=PRESELECT
*End Step
